Version 4
SHEET 1 880 680
WIRE 272 -128 160 -128
WIRE 160 -112 160 -128
WIRE 272 -32 272 -48
WIRE 336 -32 272 -32
WIRE 272 -16 272 -32
WIRE 336 64 336 32
WIRE -128 128 -304 128
WIRE -16 128 -16 80
WIRE -16 128 -64 128
WIRE 16 128 -16 128
WIRE 112 128 16 128
WIRE 256 144 240 144
WIRE -16 160 -16 128
WIRE 112 160 16 160
WIRE 272 176 240 176
WIRE 416 176 272 176
WIRE 256 208 256 144
WIRE 416 208 416 176
WIRE -304 224 -304 208
WIRE 16 304 16 160
WIRE 128 304 16 304
WIRE 272 304 272 176
WIRE 272 304 208 304
WIRE 416 304 416 288
WIRE 16 320 16 304
WIRE 16 416 16 400
WIRE 16 496 16 480
FLAG -304 224 0
FLAG 416 304 0
FLAG 160 -112 0
FLAG 272 -16 3v3
FLAG 240 112 3v3
FLAG 16 128 Vin
FLAG -16 240 0
FLAG 256 208 0
FLAG -16 0 3v3
FLAG 16 496 0
FLAG 416 176 Vout
FLAG 336 64 0
SYMBOL AutoGenerated\\THS4304 176 144 R0
SYMATTR InstName U1
SYMBOL res 0 304 R0
SYMATTR InstName R1
SYMATTR Value 47
SYMBOL res 224 288 R90
WINDOW 0 0 56 VBottom 2
WINDOW 3 32 56 VTop 2
SYMATTR InstName R2
SYMATTR Value 220
SYMBOL res 400 192 R0
SYMATTR InstName R3
SYMATTR Value 50
SYMBOL voltage -304 112 R0
WINDOW 3 -274 53 Left 2
WINDOW 123 -274 81 Left 2
WINDOW 39 -274 109 Left 2
SYMATTR InstName Vin
SYMATTR Value SINE(0 0.001 7.0401MEG)
SYMATTR Value2 ;AC 0.001
SYMATTR SpiceLine Rser=50
SYMBOL voltage 272 -32 R180
WINDOW 0 24 96 Left 2
WINDOW 3 24 16 Left 2
WINDOW 123 24 68 Left 2
WINDOW 39 0 0 Left 0
SYMATTR InstName V3
SYMATTR Value 3.3
SYMATTR Value2 AC 0.001
SYMBOL res -32 -16 R0
SYMATTR InstName R4
SYMATTR Value 470
SYMBOL res -32 144 R0
SYMATTR InstName R5
SYMATTR Value 470
SYMBOL cap -64 112 R90
WINDOW 0 0 32 VBottom 2
WINDOW 3 32 32 VTop 2
SYMATTR InstName C1
SYMATTR Value 0.01µ
SYMBOL cap 0 416 R0
SYMATTR InstName C2
SYMATTR Value 0.1µ
SYMBOL cap 320 -32 R0
SYMATTR InstName C3
SYMATTR Value 0.1µ
TEXT -264 -48 Left 2 !.include ths4304.lib
TEXT -372 376 Left 2 !.tran 1.42us
TEXT -376 456 Left 2 !;.ac dec 20 1k 1G
TEXT -376 504 Left 2 !;.op
